compound394
     RDKit          3D

 19 21  0  0  0  0  0  0  0  0999 V2000
   17.9478    4.9750  -18.4426 F   0  0  0  0  0  0  0  0  0  0  0  0
   17.4106    5.3045  -19.6377 C   0  0  0  0  0  0  0  0  0  0  0  0
   16.3457    6.1890  -19.6961 C   0  0  0  0  0  0  0  0  0  0  0  0
   15.7935    6.5277  -20.9142 C   0  0  0  0  0  0  0  0  0  0  0  0
   16.3088    5.9791  -22.0873 C   0  0  0  0  0  0  0  0  0  0  0  0
   17.3767    5.0856  -22.0233 C   0  0  0  0  0  0  0  0  0  0  0  0
   17.9261    4.7567  -20.8012 C   0  0  0  0  0  0  0  0  0  0  0  0
   15.7185    6.3401  -23.3991 C   0  0  0  0  0  0  0  0  0  0  0  0
   16.3743    6.4876  -24.5293 N   0  0  0  0  0  0  0  0  0  0  0  0
   15.4578    6.8265  -25.5317 N   0  0  0  0  0  0  0  0  0  0  0  0
   14.2281    6.8895  -24.9814 C   0  0  0  0  0  0  0  0  0  0  0  0
   14.3478    6.5934  -23.6566 C   0  0  0  0  0  0  0  0  0  0  0  0
   13.2451    6.5457  -22.6649 C   0  0  0  0  0  0  0  0  0  0  0  0
   13.1400    5.4681  -21.7888 C   0  0  0  0  0  0  0  0  0  0  0  0
   12.1084    5.4293  -20.8656 C   0  0  0  0  0  0  0  0  0  0  0  0
   12.0025    4.3798  -20.0087 O   0  0  0  0  0  0  0  0  0  0  0  0
   11.1827    6.4627  -20.8148 C   0  0  0  0  0  0  0  0  0  0  0  0
   11.2869    7.5325  -21.6838 C   0  0  0  0  0  0  0  0  0  0  0  0
   12.3152    7.5818  -22.6038 C   0  0  0  0  0  0  0  0  0  0  0  0
  1  2  1  0
  2  7  2  0
  2  3  1  0
  3  4  2  0
  4  5  1  0
  5  6  2  0
  5  8  1  0
  6  7  1  0
  8 12  1  0
  8  9  2  0
  9 10  1  0
 10 11  1  0
 11 12  2  0
 12 13  1  0
 13 19  1  0
 13 14  2  0
 14 15  1  0
 15 16  1  0
 15 17  2  0
 17 18  1  0
 18 19  2  0
M  END
>  <CHROM.1>  (1) 
144.36013160,-46.96546589,-155.85838922,12.17480740,6.11755245,-21.42295828
1.66251751,-0.61169003,2.51305391

>  <DISTR[pH=7.0]>  (1) 
99.80

>  <Name>  (1) 
compound394

>  <RI>  (1) 
1.43285e+09

>  <Rbt.Current_Directory>  (1) 
/scratch/snx3000/sbray/srv/galaxy/jobs/053/53366/working

>  <Rbt.Executable>  (1) 
rbdock ($Id: //depot/dev/client3/rdock/2021.1/src/exe/rbdock.cxx#4 $)

>  <Rbt.Library>  (1) 
libRbt.so (2021.1, Build901 2021/07/19)

>  <Rbt.Parameter_File>  (1) 
/opt/conda/data/scripts/dock.prm

>  <Rbt.Receptor>  (1) 
receptor.prm

>  <SCORE>  (1) 
3.32441

>  <SCORE.INTER>  (1) 
-12.9118

>  <SCORE.INTER.CONST>  (1) 
1

>  <SCORE.INTER.POLAR>  (1) 
-1.89631

>  <SCORE.INTER.REPUL>  (1) 
0

>  <SCORE.INTER.ROT>  (1) 
2

>  <SCORE.INTER.VDW>  (1) 
-13.8643

>  <SCORE.INTER.norm>  (1) 
-0.679568

>  <SCORE.INTRA>  (1) 
0.306569

>  <SCORE.INTRA.DIHEDRAL>  (1) 
0.203801

>  <SCORE.INTRA.DIHEDRAL.0>  (1) 
11.8091

>  <SCORE.INTRA.POLAR>  (1) 
0

>  <SCORE.INTRA.POLAR.0>  (1) 
0

>  <SCORE.INTRA.REPUL>  (1) 
0

>  <SCORE.INTRA.REPUL.0>  (1) 
0

>  <SCORE.INTRA.VDW>  (1) 
0.204669

>  <SCORE.INTRA.VDW.0>  (1) 
-2.30385

>  <SCORE.INTRA.norm>  (1) 
0.0161352

>  <SCORE.RESTR>  (1) 
15.9296

>  <SCORE.RESTR.CAVITY>  (1) 
0.598504

>  <SCORE.RESTR.PHARMA>  (1) 
15.3311

>  <SCORE.RESTR.PHARMA.con_1>  (1) 
4.55142

>  <SCORE.RESTR.PHARMA.con_2>  (1) 
2.51683

>  <SCORE.RESTR.PHARMA.opt_1>  (1) 
8.26288

>  <SCORE.RESTR.PHARMA.opt_2>  (1) 
33.3052

>  <SCORE.RESTR.norm>  (1) 
0.838401

>  <SCORE.SYSTEM>  (1) 
0

>  <SCORE.SYSTEM.CONST>  (1) 
0

>  <SCORE.SYSTEM.DIHEDRAL>  (1) 
0

>  <SCORE.SYSTEM.norm>  (1) 
0

>  <SCORE.heavy>  (1) 
19

>  <SCORE.norm>  (1) 
0.174969

>  <TAUTOMER_DISTRIBUTION>  (1) 
99

>  <TETHERED ATOMS>  (1) 
16,15,14,13,19,18,17

>  <Tethered_RMSD>  (1) 
0.0034393602253658946

>  <_MOLCOUNT>  (1) 
241

>  <SCORE.MLDUCK.id>  (1) 
11

>  <SCORE.MLDUCK.4114_brf>  (1) 
True

>  <SCORE.MLDUCK.4115_eec>  (1) 
True

>  <SCORE.MLDUCK.4116_rbb>  (1) 
False

>  <SCORE.MLDUCK.4117_rf>  (1) 
False

>  <SCORE.MLDUCK.4118_rusboost>  (1) 
False

>  <SCORE.MLDUCK.consensus>  (1) 
2

>  <FragmentId>  (1) 
0

>  <BentnessScore>  (1) 
0.8022

>  <FragSmiles>  (1) 
c1ccc(-c2c[nH]nc2-c2ccccc2)cc1

>  <MurckoScaffoldId>  (1) 
2

>  <SCORE.DUCK_WQB>  (1) 
10.750910000000001

$$$$
